test/resources/extensionName/extensionName_0_1_otherPrefix.xml
<?xml version="1.0" encoding="UTF-8"?>
<iidm:network xmlns:iidm="http://www.itesla_project.eu/schema/iidm/1_0" xmlns:lemock="http://www.powsybl.org/schema/iidm/ext/load_element_mock/1_0" id="test" caseDate="2024-09-17T13:36:37.831000+00:00" forecastDistance="0" sourceFormat="test">
    <iidm:substation id="S1">
        <iidm:voltageLevel id="VL1" nominalV="450" topologyKind="NODE_BREAKER">
            <iidm:nodeBreakerTopology nodeCount="1"/>
            <iidm:load id="Load1" loadType="UNDEFINED" p0="10" q0="20" node="0"/>
        </iidm:voltageLevel>
    </iidm:substation>
    <iidm:extension id="Load1">
        <lemock:loadElementMock/>
    </iidm:extension>
</iidm:network>
